Case_Zhongshan_25bus.m
%系统拓扑参数：包括节点、发电机和支路三部分


    baseMVA = 1;%注意这里基准值是1，如果改成100MW，响应的电抗pu应扩大100倍
    
%% bus data
%	bus_i	type	Pd	Qd	Gs	Bs	area	Vm	Va	baseKV	zone	Vmax	Vmin
bus=[
1	3	0	0	0	0	1	1	0	10	1	1.1	0.9	;
2	1	0	0	0	0	1	1	0	10	1	1.1	0.9	;
3	1	0	0	0	0	1	1	0	10	1	1.1	0.9	;
4	1	0	0	0	0	1	1	0	10	1	1.1	0.9	;
5	1	0	0	0	0	1	1	0	10	1	1.1	0.9	;
6	1	0	0	0	0	1	1	0	10	1	1.1	0.9	;
7	1	0	0	0	0	1	1	0	10	1	1.1	0.9	;
8	1	0	0	0	0	1	1	0	10	1	1.1	0.9	;
9	1	0	0	0	0	1	1	0	10	1	1.1	0.9	;
10	1	0	0	0	0	1	1	0	10	1	1.1	0.9	;
11	1	0	0	0	0	1	1	0	10	1	1.1	0.9	;
12	1	0.703777	0.245222	0	0	1	1	0	10	1	1.1	0.9	;
13	1	0	0	0	0	1	1	0	10	1	1.1	0.9	;
14	1	0.703777	0.245222	0	0	1	1	0	10	1	1.1	0.9	;
15	1	0.703777	0.245222	0	0	1	1	0	10	1	1.1	0.9	;
16	1	0.351888	0.122611	0	0	1	1	0	10	1	1.1	0.9	;
17	1	0.351888	0.122611	0	0	1	1	0	10	1	1.1	0.9	;
18	1	0.175944	0.061305	0	0	1	1	0	10	1	1.1	0.9	;
19	1	0	0	0	0	1	1	0	10	1	1.1	0.9	;
20	1	0.175944	0.061305	0	0	1	1	0	10	1	1.1	0.9	;
21	1	0.175944	0.061305	0	0	1	1	0	10	1	1.1	0.9	;
22	1	0.351888	0.122611	0	0	1	1	0	10	1	1.1	0.9	;
23	1	0.351888	0.122611	0	0	1	1	0	10	1	1.1	0.9	;
24	1	0.351888	0.122611	0	0	1	1	0	10	1	1.1	0.9	;
25	1	0.175944	0.061305	0	0	1	1	0	10	1	1.1	0.9	;  
];

%% branch data
%	fbus	tbus	r	x	b	rateA	rateB	rateC	ratio	angle	status
    branch=[
1	2	1.00E-05	1.00E-05	0	10	10	10	0	0	1	-360	360	;
2	3	0.0068085	0.00306	0	10	10	10	0	0	1	-360	360	;
3	4	8.57E-05	3.85E-05	0	5	5	5	0	0	1	-360	360	;
3	5	0.00129762	0.0005832	0	10	10	10	0	0	1	-360	360	;
5	6	0.00012015	5.40E-05	0	5	5	5	0	0	1	-360	360	;
5	7	0.00098256	0.0004416	0	10	10	10	0	0	1	-360	360	;
7	8	0.0007476	0.000336	0	10	10	10	0	0	1	-360	360	;
7	9	0.0004272	0.000192	0	10	10	10	0	0	1	-360	360	;
7	10	0.0002403	0.000108	0	5	5	5	0	0	1	-360	360	;
9	11	0.00070755	0.000318	0	5	5	5	0	0	1	-360	360	;
9	12	0.00096654	0.0004344	0	5	5	5	0	0	1	-360	360	;
9	13	0.00046693	0.000209856	0	10	10	10	0	0	1	-360	360	;
% 9	10	0.00012015	5.40E-05	0	5	5	5	0	0	1   -360	360	; %为防止环形网络造成收敛问题，姑且将系统设置成树枝状的。
11	14	0.00015219	6.84E-05	0	5	5	5	0	0	1	-360	360	;
11	15	4.54E-05	2.04E-05	0	5	5	5	0	0	1	-360	360	;
13	16	0.000302976	0.000136169	0	10	10	10	0	0	1	-360	360	;
13	17	0.000302976	0.000136169	0	10	10	10	0	0	1	-360	360	;
13	18	0.000302976	0.000136169	0	10	10	10	0	0	1	-360	360	;
13	19	0.0001335	6.00E-05	0	5	5	5	0	0	1	-360	360	;
16	20	0.0001335	6.00E-05	0	5	5	5	0	0	1	-360	360	;
17	21	0.0001335	6.00E-05	0	5	5	5	0	0	1	-360	360	;
18	22	0.0001335	6.00E-05	0	5	5	5	0	0	1	-360	360	;
20	23	0.0001335	6.00E-05	0	5	5	5	0	0	1	-360	360	;
21	24	0.0001335	6.00E-05	0	5	5	5	0	0	1	-360	360	;
22	25	0.0001335	6.00E-05	0	5	5	5	0	0	1	-360	360	;
];

%% generator data (注意，这里的generator是不包含并网节点 “主网市场等效电源”的),这里代表VPP
%	bus	Pg	Qg	Qmax	Qmin	Vg	mBase	status	Pmax	Pmin	Pc1	Pc2	Qc1min	Qc1max	Qc2min	Qc2max	ramp_agc	ramp_10	ramp_30	ramp_q	apf
% gen=[
% 12	0	0	1.6	-1.6	1	2	1	2	0	0	0	0	0	0	0	0	0	0	0	0	;
% % 12	0	0	1.2	-1.2	1	1.5	1	1.5	0	0	0	0	0	0	0	0	0	0	0	0	;%测试是否越线
% 14	0	0	1.6	-1.6	1	2	1	2	0	0	0	0	0	0	0	0	0	0	0	0	;
% 15	0	0	1.6	-1.6	1	2	1	2	0	0	0	0	0	0	0	0	0	0	0	0	;
% 16	0	0	0.8	-0.8	1	1	1	1	0	0	0	0	0	0	0	0	0	0	0	0	;
% 17	0	0	0.8	-0.8	1	1	1	1	0	0	0	0	0	0	0	0	0	0	0	0	;
% 18	0	0	0.4	-0.4	1	0.5	1	0.5	0	0	0	0	0	0	0	0	0	0	0	0	;
% 20	0	0	0.4	-0.4	1	0.5	1	0.5	0	0	0	0	0	0	0	0	0	0	0	0	;
% 21	0	0	0.4	-0.4	1	0.5	1	0.5	0	0	0	0	0	0	0	0	0	0	0	0	;
% 22	0	0	0.8	-0.8	1	1	1	1	0	0	0	0	0	0	0	0	0	0	0	0	;
% 23	0	0	0.8	-0.8	1	1	1	1	0	0	0	0	0	0	0	0	0	0	0	0	;
% 24	0	0	0.8	-0.8	1	1	1	1	0	0	0	0	0	0	0	0	0	0	0	0	;
% 25	0	0	0.4	-0.4	1	0.5	1	0.5	0	0	0	0	0	0	0	0	0	0	0	0	;    
% ];

gen=[
12	0	0	1.6	-1.6	1	2	1	2	0	0	0	0	0	0	0	0	0	0	0	0	;
% 12	0	0	1.2	-1.2	1	1.5	1	1.5	0	0	0	0	0	0	0	0	0	0	0	0	;%测试是否越线
16	0	0	0.8	-0.8	1	1	1	1	0	0	0	0	0	0	0	0	0	0	0	0	;
18	0	0	0.4	-0.4	1	0.5	1	0.5	0	0	0	0	0	0	0	0	0	0	0	0	;
24	0	0	0.8	-0.8	1	1	1	1	0	0	0	0	0	0	0	0	0	0	0	0	;   
];